@<TRIPOS>MOLECULE
*****
 52 53 0 0 0
SMALL
GASTEIGER

@<TRIPOS>ATOM
      1 C          -2.5885    3.9333   -0.1259 C.ar    1  LIG1       -0.0509
      2 C          -1.2122    4.3349   -0.1501 C.ar    1  LIG1       -0.0321
      3 C          -0.3184    3.2412   -0.0083 C.ar    1  LIG1        0.0293
      4 S          -1.2729    1.8857    0.1329 S.2     1  LIG1       -0.0959
      5 C          -2.7753    2.5622    0.0304 C.ar    1  LIG1       -0.0235
      6 C           1.1791    3.2531    0.0140 C.ar    1  LIG1        0.0293
      7 S           2.1327    4.6113   -0.1067 S.2     1  LIG1       -0.0959
      8 C           3.6355    3.9348   -0.0159 C.ar    1  LIG1       -0.0235
      9 C           3.4500    2.5613    0.1174 C.ar    1  LIG1       -0.0509
     10 C           2.0739    2.1579    0.1363 C.ar    1  LIG1       -0.0321
     11 C           1.6321    0.7142    0.2695 C.3     1  LIG1       -0.0266
     12 C           2.7782   -0.3034    0.3780 C.3     1  LIG1       -0.0490
     13 C           2.2363   -1.7329    0.5011 C.3     1  LIG1       -0.0528
     14 C           3.3818   -2.7471    0.6040 C.3     1  LIG1       -0.0533
     15 C           2.8419   -4.1767    0.7240 C.3     1  LIG1       -0.0559
     16 C           3.9799   -5.1883    0.8247 C.3     1  LIG1       -0.0653
     17 C          -0.7682    5.7745   -0.3134 C.3     1  LIG1       -0.0266
     18 C          -1.9103    6.7914   -0.4613 C.3     1  LIG1       -0.0490
     19 C          -1.3598    8.2133   -0.6284 C.3     1  LIG1       -0.0528
     20 C          -2.4968    9.2301   -0.7831 C.3     1  LIG1       -0.0533
     21 C          -1.9441   10.6499   -0.9535 C.3     1  LIG1       -0.0559
     22 C          -3.0720   11.6654   -1.1107 C.3     1  LIG1       -0.0653
     23 H           4.5832    4.4543   -0.0531 H       1  LIG1        0.0693
     24 H           4.2866    1.8818    0.1971 H       1  LIG1        0.0626
     25 H           1.0275    0.4540   -0.6257 H       1  LIG1        0.0314
     26 H           1.0052    0.6248    1.1825 H       1  LIG1        0.0314
     27 H           3.4148   -0.2372   -0.5319 H       1  LIG1        0.0268
     28 H           3.3931   -0.0715    1.2755 H       1  LIG1        0.0268
     29 H           1.5971   -1.8070    1.4086 H       1  LIG1        0.0265
     30 H           1.6173   -1.9690   -0.3926 H       1  LIG1        0.0265
     31 H           4.0208   -2.6719   -0.3036 H       1  LIG1        0.0265
     32 H           4.0010   -2.5123    1.4980 H       1  LIG1        0.0265
     33 H           2.2247   -4.4193   -0.1685 H       1  LIG1        0.0263
     34 H           2.2054   -4.2611    1.6318 H       1  LIG1        0.0263
     35 H           4.6204   -5.1405   -0.0817 H       1  LIG1        0.0230
     36 H           4.6015   -4.9823    1.7221 H       1  LIG1        0.0230
     37 H          -3.7235    2.0441    0.0750 H       1  LIG1        0.0693
     38 H          -3.4242    4.6123   -0.2189 H       1  LIG1        0.0626
     39 H          -0.1700    6.0572    0.5793 H       1  LIG1        0.0314
     40 H          -0.1344    5.8385   -1.2238 H       1  LIG1        0.0314
     41 H          -2.5184    6.5331   -1.3563 H       1  LIG1        0.0268
     42 H          -2.5550    6.7570    0.4445 H       1  LIG1        0.0268
     43 H          -0.7102    8.2512   -1.5308 H       1  LIG1        0.0265
     44 H          -0.7491    8.4780    0.2630 H       1  LIG1        0.0265
     45 H          -3.1072    8.9650   -1.6747 H       1  LIG1        0.0265
     46 H          -3.1468    9.1947    0.1190 H       1  LIG1        0.0265
     47 H          -1.2954   10.6926   -1.8557 H       1  LIG1        0.0263
     48 H          -1.3361   10.9237   -0.0637 H       1  LIG1        0.0263
     49 H          -3.6833   11.4278   -2.0074 H       1  LIG1        0.0230
     50 H          -2.6430   12.6823   -1.2324 H       1  LIG1        0.0230
     51 H          -3.7247   11.6598   -0.2119 H       1  LIG1        0.0230
     52 H           3.5609   -6.2130    0.9101 H       1  LIG1        0.0230
@<TRIPOS>BOND
     1     1     2   ar
     2     2     3   ar
     3     3     4   ar
     4     1     5   ar
     5     5     4   ar
     6     3     6    1
     7     6     7   ar
     8     7     8   ar
     9     8     9   ar
    10     9    10   ar
    11    10     6   ar
    12    10    11    1
    13    11    12    1
    14    12    13    1
    15    13    14    1
    16    14    15    1
    17    15    16    1
    18     2    17    1
    19    17    18    1
    20    18    19    1
    21    19    20    1
    22    20    21    1
    23    21    22    1
    24     8    23    1
    25     9    24    1
    26    11    25    1
    27    11    26    1
    28    12    27    1
    29    12    28    1
    30    13    29    1
    31    13    30    1
    32    14    31    1
    33    14    32    1
    34    15    33    1
    35    15    34    1
    36    16    35    1
    37    16    36    1
    38     5    37    1
    39     1    38    1
    40    17    39    1
    41    17    40    1
    42    18    41    1
    43    18    42    1
    44    19    43    1
    45    19    44    1
    46    20    45    1
    47    20    46    1
    48    21    47    1
    49    21    48    1
    50    22    49    1
    51    22    50    1
    52    22    51    1
    53    16    52    1
